   39
 
 O    -0.541045    -4.074026    -1.887776
 H    -1.314045    -3.837026    -2.389776
 C     0.201955    -3.010026    -1.586776
 C     1.449955    -3.293026    -0.793776
 H     1.185955    -3.924026     0.070224
 H     2.118955    -3.867026    -1.452776
 C     2.170955    -2.001026    -0.311776
 H     2.318955    -1.315026    -1.165776
 C     1.343955    -1.295026     0.733224
 N     0.213955    -0.640026     0.401224
 H    -0.107045    -0.584026    -0.549776
 C    -0.561045     0.061974     1.428224
 H    -0.647045    -0.555026     2.338224
 C    -1.970045     0.331974     0.956224
 O    -2.776045     0.908974     1.860224
 C    -4.106045     1.170974     1.370224
 H    -4.087045     1.860974     0.511224
 H    -4.619045     0.239974     1.082224
 H    -4.678045     1.644974     2.182224
 O    -2.325045     0.037974    -0.174776
 C     0.136955     1.403974     1.766224
 H    -0.438045     1.956974     2.526224
 C     0.261955     2.239974     0.485224
 C    -0.758045     3.123974     0.117224
 H    -1.638045     3.234974     0.742224
 C    -0.653045     3.870974    -1.059776
 H    -1.450045     4.551974    -1.342776
 C     0.475955     3.741974    -1.872776
 H     0.556955     4.321974    -2.786776
 C     1.500955     2.865974    -1.505776
 H     2.379955     2.765974    -2.135776
 C     1.395955     2.120974    -0.327776
 H     2.199955     1.447974    -0.048776
 H     1.135955     1.212974     2.188224
 O     1.773955    -1.356026     1.872224
 N     3.481955    -2.299026     0.321224
 H     3.365955    -2.908026     1.210224
 H     4.175955    -2.804026    -0.337776
 O    -0.091045    -1.876026    -1.930776
