   24
 
 C     0.749920     0.568596    -0.878774
 C     0.804261     0.485179     0.665282
 C     2.153640     0.637688    -1.517313
 O     0.147136    -0.634058    -1.353729
 H     0.150407     1.450871    -1.205350
 H     2.803498    -0.182480    -1.136090
 H     2.079602     0.507994    -2.620977
 O     2.767170     1.890322    -1.256493
 H     2.653658     2.085130    -0.331824
 C    -0.618984     0.326995     1.229092
 H     1.441364    -0.377349     0.974548
 O     1.345361     1.694451     1.175218
 C    -1.253520    -0.916863     0.589150
 O    -0.514883     0.127124     2.629778
 H    -1.227411     1.236217     1.009034
 C    -1.204939    -0.763138    -0.942121
 H    -0.710598    -1.837089     0.911681
 O    -2.608715    -0.973514     1.005410
 O    -1.659344    -1.962731    -1.536676
 H    -1.818596     0.096178    -1.295667
 H    -0.997168    -2.632856    -1.432353
 H     1.211501     1.672809     2.115201
 H    -1.384055    -0.104042     2.934161
 H    -3.039041    -1.628713     0.469517
