   24
 
 C    -0.804060     0.500101    -0.649075  0.000000
 C    -0.804060     0.500101     0.907588  0.000000
 O     0.549600     0.500101     1.408172  0.000000
 C     1.310806    -0.654579     1.007042  0.000000
 C     1.420185    -0.707648    -0.537621  0.000000
 C     0.000406    -0.723025    -1.157877  0.000000
 C    -1.495478     1.752855     1.506096  0.000000
 O    -2.855887     1.813797     1.044571  0.000000
 O     2.618796    -0.521523     1.586696  0.000000
 O     2.195429    -1.838050    -0.969417  0.000000
 O     0.059802    -0.754379    -2.593856  0.000000
 O    -2.125717     0.396453    -1.208612  0.000000
 H    -1.338700    -0.392980     1.274381  0.000000
 H     0.833767    -1.569385     1.400021  0.000000
 H     1.953940     0.195428    -0.874621  0.000000
 H    -0.520448    -1.642921    -0.846165  0.000000
 H    -0.312816     1.416738    -1.017982  0.000000
 H    -1.398870     1.716629     2.604741  0.000000
 H    -0.973560     2.673166     1.197554  0.000000
 H     3.188955    -1.251248     1.366172  0.000000
 H     1.807362    -2.667651    -0.712506  0.000000
 H     0.514272    -1.521117    -2.925968  0.000000
 H    -2.136470     0.395610    -2.159027  0.000000
 H    -2.920406     1.869707     0.096045  0.000000
